%nprocshared=8
%mem=10GB
#p nmr=giao rb3lyp/6-31g(d)

Benzene_opt

0 1
 C                 -1.33923600   -0.39585300    0.00000500
 C                 -0.32668500   -1.35773000    0.00006900
 C                  1.01242100   -0.96187800   -0.00005500
 C                  1.33920200    0.39596500    0.00000800
 C                  0.32679800    1.35770000    0.00006200
 C                 -1.01250100    0.96179800   -0.00005800
 H                 -2.38133000   -0.70401000   -0.00006600
 H                 -0.58108600   -2.41424500    0.00007900
 H                  1.80037500   -1.71023400   -0.00015400
 H                  2.38136700    0.70385800    0.00000700
 H                  0.58095200    2.41426700    0.00001800
 H                 -1.80027600    1.71035300   -0.00006300

